* Question 2
V1 1 0 pwl(0 0 0.0001 80);
F1 3 0 V1 80;
R1 2 1 16;
R2 2 3 80;
R3 2 0 40;
L1 2 0 30 ic=0;
c1 2 0 0.01666 ic=0;
.op
.tran 0.001 5 uic
.end